Circuit: * C:\Users\Dell\Desktop\TC_TP1\Draft1.asc

.OP point found by inspection.

Date: Wed Aug 12 16:53:12 2020
Total elapsed time: 0.035 seconds.

tnom = 27
temp = 27
method = trap
totiter = 24
traniter = 0
tranpoints = 0
accept = 0
rejected = 0
matrix size = 4
fillins = 0
solver = Normal
Matrix Compiler1: 100 bytes object code size
Matrix Compiler2: 248 bytes object code size
