Circuit: * C:\Users\Dell\Desktop\TC_TP1\filtroRC.asc


Date: Mon Aug 24 13:36:12 2020
Total elapsed time: 0.059 seconds.

tnom = 27
temp = 27
method = trap
totiter = 0
traniter = 0
tranpoints = 0
accept = 0
rejected = 0
matrix size = 6
fillins = 0
solver = Normal

