Circuit: * C:\Users\Dell\Desktop\TC_TP1\filtroRC_160hZ.asc

Direct Newton iteration for .op point succeeded.

Date: Sat Aug 22 23:40:37 2020
Total elapsed time: 0.038 seconds.

tnom = 27
temp = 27
method = modified trap
totiter = 5063
traniter = 5060
tranpoints = 2531
accept = 2531
rejected = 0
matrix size = 6
fillins = 0
solver = Normal
Matrix Compiler1: 110 bytes object code size  0.0/0.0/[0.0]
Matrix Compiler2: 346 bytes object code size  0.1/0.0/[0.0]

