Circuit: * C:\Users\Dell\Desktop\TC_TP1\Filtro RC.asc


Date: Sun Aug 23 00:02:59 2020
Total elapsed time: 0.015 seconds.

tnom = 27
temp = 27
method = trap
totiter = 0
traniter = 0
tranpoints = 0
accept = 0
rejected = 0
matrix size = 8
fillins = 0
solver = Normal

