Circuit: * C:\Users\Dell\Desktop\TC_TP1\filtroRC_altafrecuencia_seno.asc

.OP point found by inspection.

Date: Sat Aug 22 23:30:04 2020
Total elapsed time: 0.051 seconds.

tnom = 27
temp = 27
method = modified trap
totiter = 5242
traniter = 5242
tranpoints = 2622
accept = 2622
rejected = 0
matrix size = 6
fillins = 0
solver = Normal
Matrix Compiler1: 110 bytes object code size  0.1/0.1/[0.0]
Matrix Compiler2: 346 bytes object code size  0.0/0.1/[0.0]

