Circuit: * C:\Users\Dell\Desktop\TC_TP1\TP1.asc


Date: Sun Aug 23 15:36:57 2020
Total elapsed time: 0.462 seconds.

tnom = 27
temp = 27
method = trap
totiter = 0
traniter = 0
tranpoints = 0
accept = 0
rejected = 0
matrix size = 5
fillins = 2
solver = Normal

