Circuit: * C:\Users\Dell\Desktop\TC-TP4\Simulaciones_Sedra\Sedra\Sedra_etapa1.asc

Direct Newton iteration for .op point succeeded.

Date: Tue Nov 03 01:01:51 2020
Total elapsed time: 1.357 seconds.

tnom = 27
temp = 27
method = trap
totiter = 17
traniter = 0
tranpoints = 0
accept = 0
rejected = 0
matrix size = 31
fillins = 46
solver = Normal
Matrix Compiler1:     212 opcodes
Matrix Compiler2: 3.41 KB object code size
