Circuit: * C:\Users\Dell\Desktop\TC-TP4\Simulaciones_Sedra\Sedra\Sedra_double_buffer.asc

Early termination of direct N-R iteration.
Direct Newton iteration failed to find .op point.  (Use ".option noopiter" to skip.)
Starting Gmin stepping
Increasing initial diagonal Gmin to 100
Gmin = 100
vernier = 0.5
Gmin = 16.7772
vernier = 0.25
vernier = 0.125
vernier = 0.0625
vernier = 0.03125
Gmin = 15.3118
vernier = 0.015625
vernier = 0.0078125
vernier = 0.00390625
Gmin = 15.0898
vernier = 0.00195313
vernier = 0.000976563
vernier = 0.000488281
Gmin = 0
Gmin stepping failed

Starting source stepping with srcstepmethod=0
Source Step = 3.0303%
Source Step = 33.3333%
Source Step = 63.6364%
Source Step = 93.9394%
Source stepping succeeded in finding the operating point.


Date: Thu Nov 05 00:52:45 2020
Total elapsed time: 0.917 seconds.

tnom = 27
temp = 27
method = trap
totiter = 1913
traniter = 0
tranpoints = 0
accept = 0
rejected = 0
matrix size = 101
fillins = 934
solver = Normal
Matrix Compiler1:    6511 opcodes
Matrix Compiler2: 25.10 KB object code size  6.2/4.9/[2.6]

