Circuit: * C:\Users\Dell\Desktop\TC-TP2\Simulaciones\Draft1.asc


Date: Tue Sep 08 13:55:42 2020
Total elapsed time: 0.155 seconds.

tnom = 27
temp = 27
method = trap
totiter = 0
traniter = 0
tranpoints = 0
accept = 0
rejected = 0
matrix size = 3
fillins = 0
solver = Normal

