Circuit: * C:\Users\Dell\Desktop\TC-TP2\Simulaciones\Inversor_Caso1.asc

Direct Newton iteration for .op point succeeded.

Date: Mon Sep 14 02:27:55 2020
Total elapsed time: 0.037 seconds.

tnom = 27
temp = 27
method = trap
totiter = 13
traniter = 0
tranpoints = 0
accept = 0
rejected = 0
matrix size = 31
fillins = 37
solver = Normal
Matrix Compiler1:     172 opcodes
Matrix Compiler2: 3.13 KB object code size
