Circuit: * C:\Users\Dell\Desktop\TC-TP2\Simulaciones\Inversor.asc


Date: Sun Sep 06 02:54:49 2020
Total elapsed time: 0.020 seconds.

tnom = 27
temp = 27
method = trap
totiter = 400
traniter = 0
tranpoints = 0
accept = 0
rejected = 0
matrix size = 31
fillins = 37
solver = Normal
Matrix Compiler1: 3.10 KB object code size  1.4/0.5/[0.3]
Matrix Compiler2: 3.13 KB object code size  0.5/0.6/[0.4]

