Circuit: * C:\Users\Dell\Desktop\TC-TP2\Simulaciones\Zin\Caso 1\Inversor_Caso1.asc

Direct Newton iteration for .op point succeeded.

Date: Thu Sep 10 01:34:33 2020
Total elapsed time: 0.401 seconds.

tnom = 27
temp = 27
method = trap
totiter = 13
traniter = 0
tranpoints = 0
accept = 0
rejected = 0
matrix size = 31
fillins = 37
solver = Normal
Matrix Compiler1:     172 opcodes
Matrix Compiler2: 3.13 KB object code size
