Circuit: * C:\Users\Dell\Desktop\TC-TP2\Simulaciones\DC Sweep\Caso 3\Inversor_Caso3.asc


Date: Wed Sep 09 00:25:34 2020
Total elapsed time: 0.018 seconds.

tnom = 27
temp = 27
method = trap
totiter = 85
traniter = 0
tranpoints = 0
accept = 0
rejected = 0
matrix size = 31
fillins = 37
solver = Normal
Matrix Compiler1: 3.10 KB object code size
Matrix Compiler2: 3.13 KB object code size
