Circuit: * C:\Users\Dell\Desktop\TC-TP4\Simulaciones_Sedra\Sedra_complete.asc

Early termination of direct N-R iteration.
Direct Newton iteration failed to find .op point.  (Use ".option noopiter" to skip.)
Starting Gmin stepping
Gmin = 10
vernier = 0.5
vernier = 0.25
vernier = 0.125
vernier = 0.0625
Gmin = 8.61953
vernier = 0.03125
vernier = 0.015625
vernier = 0.0078125
vernier = 0.00390625
Gmin = 8.47038
vernier = 0.00195313
vernier = 0.000976563
vernier = 0.000488281
Gmin = 0
Gmin stepping failed

Starting source stepping with srcstepmethod=0
Source Step = 3.0303%
Source Step = 33.3333%
Source Step = 63.6364%
Source Step = 93.9394%
Source stepping succeeded in finding the operating point.


Date: Sun Nov 01 23:41:26 2020
Total elapsed time: 0.155 seconds.

tnom = 27
temp = 27
method = trap
totiter = 1612
traniter = 0
tranpoints = 0
accept = 0
rejected = 0
matrix size = 60
fillins = 261
solver = Normal
Matrix Compiler1:    1189 opcodes
Matrix Compiler2: 9.54 KB object code size  1.6/1.7/[1.0]

