Circuit: * C:\Users\Dell\Desktop\TC-TP4\Simulaciones_Sedra\Sedra_complete_values.asc

Early termination of direct N-R iteration.
Direct Newton iteration failed to find .op point.  (Use ".option noopiter" to skip.)
Starting Gmin stepping
Increasing initial diagonal Gmin to 100
Gmin = 100
vernier = 0.5
vernier = 0.25
vernier = 0.125
Gmin = 49.6485
vernier = 0.0625
vernier = 0.03125
vernier = 0.015625
vernier = 0.0078125
Gmin = 50.5068
vernier = 0.00390625
vernier = 0.00195313
vernier = 0.000976563
vernier = 0.000488281
Gmin = 50.4329
Gmin = 0
Gmin stepping failed

Starting source stepping with srcstepmethod=0
Source Step = 3.0303%
Source Step = 33.3333%
Source Step = 63.6364%
Source Step = 93.9394%
Source stepping succeeded in finding the operating point.


Date: Sun Nov 01 02:54:09 2020
Total elapsed time: 0.267 seconds.

tnom = 27
temp = 27
method = trap
totiter = 1717
traniter = 0
tranpoints = 0
accept = 0
rejected = 0
matrix size = 100
fillins = 778
solver = Normal
Matrix Compiler1:    5640 opcodes
Matrix Compiler2: 22.39 KB object code size  2.8/2.9/[1.5]

