Circuit: * C:\Users\Dell\Desktop\TC-TP4\Simulaciones_Sedra\Sedra_etapa1.asc

Early termination of direct N-R iteration.
Direct Newton iteration failed to find .op point.  (Use ".option noopiter" to skip.)
Starting Gmin stepping
Gmin = 10
vernier = 0.5
vernier = 0.25
Gmin = 2.62144
vernier = 0.125
vernier = 0.0625
vernier = 0.03125
vernier = 0.015625
Gmin = 2.57107
vernier = 0.0078125
vernier = 0.00390625
vernier = 0.00195313
vernier = 0.000976563
Gmin = 2.56793
vernier = 0.000488281
Gmin = 0
Gmin stepping succeeded in finding the operating point.


Date: Sun Nov 01 23:20:28 2020
Total elapsed time: 0.166 seconds.

tnom = 27
temp = 27
method = trap
totiter = 1580
traniter = 0
tranpoints = 0
accept = 0
rejected = 0
matrix size = 57
fillins = 329
solver = Normal
Matrix Compiler1:    1255 opcodes
Matrix Compiler2: 10.33 KB object code size  2.0/2.1/[1.0]

