Circuit: * C:\Users\Dell\Desktop\TC-TP2\Simulaciones\DC Sweep\Caso 1\Inversor_Caso1.asc


Date: Wed Sep 09 00:10:46 2020
Total elapsed time: 0.021 seconds.

tnom = 27
temp = 27
method = trap
totiter = 119
traniter = 0
tranpoints = 0
accept = 0
rejected = 0
matrix size = 31
fillins = 37
solver = Normal
Matrix Compiler1: 3.10 KB object code size  1.2/0.5/[0.4]
Matrix Compiler2: 3.13 KB object code size  0.4/0.5/[0.3]

