Circuit: * C:\Users\Dell\Desktop\TC-TP2\Simulaciones\DC Sweep\Caso 2\Inversor_Caso2.asc


Date: Wed Sep 09 00:21:29 2020
Total elapsed time: 0.019 seconds.

tnom = 27
temp = 27
method = trap
totiter = 102
traniter = 0
tranpoints = 0
accept = 0
rejected = 0
matrix size = 31
fillins = 37
solver = Normal
Matrix Compiler1: 3.10 KB object code size  1.3/0.6/[0.4]
Matrix Compiler2: 3.13 KB object code size  0.5/0.6/[0.3]

