Circuit: * C:\Users\Dell\Desktop\TC-TP2\Simulaciones\DC Sweep\Caso 2\No_inversor_Caso2.asc


Date: Wed Sep 09 00:38:47 2020
Total elapsed time: 0.090 seconds.

tnom = 27
temp = 27
method = trap
totiter = 111
traniter = 0
tranpoints = 0
accept = 0
rejected = 0
matrix size = 32
fillins = 37
solver = Normal
Matrix Compiler1: 3.22 KB object code size  1.5/0.5/[0.4]
Matrix Compiler2: 3.24 KB object code size  0.4/0.6/[0.4]

